Version 4
SHEET 1 880 680
WIRE 32 128 -32 128
WIRE 160 128 112 128
WIRE 192 128 160 128
WIRE 400 144 256 144
WIRE 528 144 400 144
WIRE -32 192 -32 128
WIRE 160 224 160 128
WIRE 272 224 160 224
WIRE 288 224 272 224
WIRE 400 224 400 144
WIRE 400 224 368 224
WIRE 528 224 528 144
WIRE -240 240 -240 208
WIRE -240 240 -288 240
WIRE -240 256 -240 240
WIRE 272 288 272 224
WIRE 400 288 400 224
WIRE 272 352 272 288
WIRE 400 352 400 288
WIRE 528 352 528 304
FLAG -240 128 VCC
FLAG -288 240 0
FLAG 224 112 VCC
FLAG -32 272 0
FLAG -240 336 VEE
FLAG 224 176 VEE
FLAG 528 352 0
FLAG 192 160 0
SYMBOL OpAmps/OP07 224 80 R0
SYMATTR InstName U1
SYMBOL res 384 208 R90
WINDOW 0 0 56 VBottom 2
WINDOW 3 -28 23 VTop 2
SYMATTR InstName R2
SYMATTR Value 10k
SYMBOL voltage -240 112 R0
SYMATTR InstName V1
SYMATTR Value 9
SYMBOL Misc/signal -32 176 R0
WINDOW 3 -71 131 Left 2
SYMATTR InstName V2
SYMBOL voltage -240 240 R0
SYMATTR InstName V3
SYMATTR Value 9
SYMBOL res 128 112 R90
WINDOW 0 0 56 VBottom 2
WINDOW 3 32 56 VTop 2
SYMATTR InstName R1
SYMATTR Value 1.2k
SYMBOL res 512 208 R0
SYMATTR InstName R3
SYMATTR Value 1k
SYMBOL zener 336 272 R90
WINDOW 0 -4 32 VBottom 2
WINDOW 3 36 32 VTop 2
SYMATTR InstName D3
SYMBOL zener 336 368 R270
WINDOW 0 36 32 VTop 2
WINDOW 3 -4 32 VBottom 2
SYMATTR InstName D4
SYMBOL diode 336 304 R270
WINDOW 0 32 32 VTop 2
WINDOW 3 0 32 VBottom 2
SYMATTR InstName D1
SYMBOL diode 336 336 R90
WINDOW 0 0 32 VBottom 2
WINDOW 3 32 32 VTop 2
SYMATTR InstName D2
TEXT -272 -128 Left 2 !.tran 10m
