Version 4
SHEET 1 1116 1044
WIRE 432 -80 416 -80
WIRE 528 -80 512 -80
WIRE 576 -80 528 -80
WIRE 688 -80 656 -80
WIRE 416 -48 416 -80
WIRE 528 112 528 -80
WIRE 560 112 528 112
WIRE 176 128 144 128
WIRE 688 128 688 -80
WIRE 688 128 624 128
WIRE 784 128 688 128
WIRE 432 144 240 144
WIRE 560 144 432 144
WIRE 176 160 -48 160
WIRE 784 160 784 128
WIRE -48 192 -48 160
WIRE 144 224 144 128
WIRE 256 224 144 224
WIRE 272 224 256 224
WIRE 432 224 432 144
WIRE 432 224 352 224
WIRE -256 240 -256 208
WIRE -256 240 -304 240
WIRE 144 240 144 224
WIRE -256 256 -256 240
WIRE 256 288 256 224
WIRE 288 288 256 288
WIRE 432 288 432 224
WIRE 432 288 352 288
WIRE 256 352 256 288
WIRE 288 352 256 352
WIRE 432 352 432 288
WIRE 432 352 352 352
WIRE 144 368 144 320
WIRE 176 704 144 704
WIRE -96 720 -144 720
WIRE 432 720 240 720
WIRE 64 736 -32 736
WIRE 176 736 64 736
WIRE -448 752 -672 752
WIRE -400 752 -448 752
WIRE -272 752 -336 752
WIRE -96 752 -272 752
WIRE 976 768 976 704
WIRE 976 768 960 768
WIRE -672 784 -672 752
WIRE 144 800 144 704
WIRE 256 800 144 800
WIRE 272 800 256 800
WIRE 432 800 432 720
WIRE 432 800 352 800
WIRE -144 816 -144 720
WIRE 64 816 64 736
WIRE 64 816 -144 816
WIRE 144 816 144 800
WIRE 960 816 960 768
WIRE 960 816 848 816
WIRE 1040 816 960 816
WIRE -272 848 -272 752
WIRE 848 848 848 816
WIRE -448 864 -448 752
WIRE 256 864 256 800
WIRE 288 864 256 864
WIRE 432 864 432 800
WIRE 432 864 352 864
WIRE 960 864 960 816
WIRE 256 928 256 864
WIRE 288 928 256 928
WIRE 432 928 432 864
WIRE 432 928 352 928
WIRE 144 944 144 896
WIRE 848 944 848 912
WIRE 960 944 848 944
WIRE 960 976 960 944
FLAG -256 128 VCC
FLAG -304 240 0
FLAG 144 368 0
FLAG 208 112 VCC
FLAG -48 272 0
FLAG -256 336 VEE
FLAG 208 176 VEE
FLAG 592 96 VCC
FLAG 592 160 VEE
FLAG 416 16 0
FLAG 784 240 0
FLAG 144 944 VGND
FLAG 208 688 VCC
FLAG 208 752 0
FLAG -448 944 0
FLAG -64 704 VCC
FLAG -64 768 0
FLAG -672 864 0
FLAG 976 624 VCC
FLAG 960 976 0
FLAG 1040 816 VGND
FLAG -272 928 VGND
SYMBOL OpAmps/OP07 208 80 R0
SYMATTR InstName U1
SYMBOL res 128 224 R0
SYMATTR InstName R1
SYMATTR Value 1k
SYMBOL res 368 208 R90
WINDOW 0 0 56 VBottom 2
WINDOW 3 -28 23 VTop 2
SYMATTR InstName R2
SYMATTR Value 10k
SYMBOL diode 352 272 R90
WINDOW 0 0 48 VBottom 2
WINDOW 3 -27 18 VTop 2
SYMATTR InstName D1
SYMATTR Value 1N4148
SYMBOL diode 288 368 R270
WINDOW 0 32 14 VTop 2
WINDOW 3 59 46 VBottom 2
SYMATTR InstName D2
SYMATTR Value 1N4148
SYMBOL voltage -256 112 R0
SYMATTR InstName V1
SYMATTR Value 9
SYMBOL Misc/signal -48 176 R0
WINDOW 3 -71 131 Left 2
SYMATTR Value SINE(0 3 1K)
SYMATTR InstName V2
SYMBOL voltage -256 240 R0
SYMATTR InstName V3
SYMATTR Value 9
SYMBOL OpAmps/OP07 592 64 R0
SYMATTR InstName U2
SYMBOL res 528 -96 R90
WINDOW 0 0 56 VBottom 2
WINDOW 3 32 56 VTop 2
SYMATTR InstName R4
SYMATTR Value 20k
SYMBOL res 672 -96 R90
WINDOW 0 0 56 VBottom 2
WINDOW 3 32 56 VTop 2
SYMATTR InstName R5
SYMATTR Value 1k
SYMBOL cap 400 -48 R0
SYMATTR InstName C1
SYMATTR Value 50n
SYMBOL res 768 144 R0
SYMATTR InstName R6
SYMATTR Value 1k
SYMBOL OpAmps/OP07 208 656 R0
SYMATTR InstName U3
SYMBOL res 128 800 R0
SYMATTR InstName R3
SYMATTR Value 1k
SYMBOL res 368 784 R90
WINDOW 0 0 56 VBottom 2
WINDOW 3 -28 23 VTop 2
SYMATTR InstName R7
SYMATTR Value 10k
SYMBOL diode 352 848 R90
WINDOW 0 0 48 VBottom 2
WINDOW 3 -27 18 VTop 2
SYMATTR InstName D3
SYMATTR Value 1N4148
SYMBOL diode 288 944 R270
WINDOW 0 32 14 VTop 2
WINDOW 3 59 46 VBottom 2
SYMATTR InstName D4
SYMATTR Value 1N4148
SYMBOL res -432 960 R180
WINDOW 0 36 76 Left 2
WINDOW 3 36 40 Left 2
SYMATTR InstName R8
SYMATTR Value 510k
SYMBOL cap -336 736 R90
WINDOW 0 0 32 VBottom 2
WINDOW 3 32 32 VTop 2
SYMATTR InstName C2
SYMATTR Value 22µ
SYMBOL res -288 832 R0
SYMATTR InstName R9
SYMATTR Value 510k
SYMBOL OpAmps/OP07 -64 672 R0
SYMATTR InstName U4
SYMBOL Misc/signal -672 768 R0
WINDOW 3 -71 131 Left 2
SYMATTR Value SINE(0 3 1K)
SYMATTR InstName V4
SYMBOL res 944 848 R0
SYMATTR InstName R11
SYMATTR Value 10k
SYMBOL res 960 608 R0
SYMATTR InstName R12
SYMATTR Value 10k
SYMBOL cap 832 848 R0
SYMATTR InstName C3
SYMATTR Value 47µ
TEXT -288 -128 Left 2 !.tran 10m
