Version 4
SHEET 1 880 680
WIRE 432 -80 416 -80
WIRE 528 -80 512 -80
WIRE 576 -80 528 -80
WIRE 688 -80 656 -80
WIRE 416 -48 416 -80
WIRE 528 112 528 -80
WIRE 560 112 528 112
WIRE 176 128 144 128
WIRE 688 128 688 -80
WIRE 688 128 624 128
WIRE 784 128 688 128
WIRE 432 144 240 144
WIRE 560 144 432 144
WIRE 176 160 -48 160
WIRE 784 160 784 128
WIRE -48 192 -48 160
WIRE 144 224 144 128
WIRE 256 224 144 224
WIRE 272 224 256 224
WIRE 432 224 432 144
WIRE 432 224 352 224
WIRE -256 240 -256 208
WIRE -256 240 -304 240
WIRE 144 240 144 224
WIRE -256 256 -256 240
WIRE 256 288 256 224
WIRE 288 288 256 288
WIRE 432 288 432 224
WIRE 432 288 352 288
WIRE 256 352 256 288
WIRE 288 352 256 352
WIRE 432 352 432 288
WIRE 432 352 416 352
WIRE 144 368 144 320
FLAG -256 128 VCC
FLAG -304 240 0
FLAG 144 368 0
FLAG 208 112 VCC
FLAG -48 272 0
FLAG -256 336 VEE
FLAG 208 176 VEE
FLAG 592 96 VCC
FLAG 592 160 VEE
FLAG 416 16 0
FLAG 784 240 0
SYMBOL OpAmps/OP07 208 80 R0
SYMATTR InstName U1
SYMBOL res 128 224 R0
SYMATTR InstName R1
SYMATTR Value 1.2k
SYMBOL res 368 208 R90
WINDOW 0 0 56 VBottom 2
WINDOW 3 -28 23 VTop 2
SYMATTR InstName R2
SYMATTR Value 5k
SYMBOL diode 352 272 R90
WINDOW 0 0 48 VBottom 2
WINDOW 3 -27 18 VTop 2
SYMATTR InstName D1
SYMATTR Value 1N4148
SYMBOL diode 288 368 R270
WINDOW 0 32 14 VTop 2
WINDOW 3 59 46 VBottom 2
SYMATTR InstName D2
SYMATTR Value 1N4148
SYMBOL voltage -256 112 R0
SYMATTR InstName V1
SYMATTR Value 9
SYMBOL Misc/signal -48 176 R0
WINDOW 3 -71 131 Left 2
SYMATTR InstName V2
SYMBOL voltage -256 240 R0
SYMATTR InstName V3
SYMATTR Value 9
SYMBOL OpAmps/OP07 592 64 R0
SYMATTR InstName U2
SYMBOL res 528 -96 R90
WINDOW 0 0 56 VBottom 2
WINDOW 3 32 56 VTop 2
SYMATTR InstName R4
SYMATTR Value 10k
SYMBOL res 672 -96 R90
WINDOW 0 0 56 VBottom 2
WINDOW 3 32 56 VTop 2
SYMATTR InstName R5
SYMATTR Value 1k
SYMBOL cap 400 -48 R0
SYMATTR InstName C1
SYMATTR Value 50n
SYMBOL res 768 144 R0
SYMATTR InstName R6
SYMATTR Value 1k
SYMBOL diode 352 368 R270
WINDOW 0 32 14 VTop 2
WINDOW 3 59 46 VBottom 2
SYMATTR InstName D3
SYMATTR Value 1N4148
TEXT -288 -128 Left 2 !.tran 10m
