Version 4
SHEET 1 880 680
WIRE 176 128 144 128
WIRE 384 144 240 144
WIRE 512 144 384 144
WIRE 176 160 -48 160
WIRE -48 192 -48 160
WIRE 512 208 512 144
WIRE 144 224 144 128
WIRE 256 224 144 224
WIRE 272 224 256 224
WIRE 384 224 384 144
WIRE 384 224 352 224
WIRE -256 240 -256 208
WIRE -256 240 -304 240
WIRE 144 240 144 224
WIRE -256 256 -256 240
WIRE 256 288 256 224
WIRE 288 288 256 288
WIRE 384 288 384 224
WIRE 384 288 352 288
WIRE 256 352 256 288
WIRE 288 352 256 352
WIRE 384 352 384 288
WIRE 384 352 352 352
WIRE 512 352 512 288
WIRE 144 368 144 320
FLAG -256 128 VCC
FLAG -304 240 0
FLAG 144 368 0
FLAG 208 112 VCC
FLAG -48 272 0
FLAG -256 336 VEE
FLAG 208 176 VEE
FLAG 512 352 0
SYMBOL OpAmps/OP07 208 80 R0
SYMATTR InstName U1
SYMBOL res 128 224 R0
SYMATTR InstName R1
SYMATTR Value 1.2k
SYMBOL res 368 208 R90
WINDOW 0 0 56 VBottom 2
WINDOW 3 -28 23 VTop 2
SYMATTR InstName R2
SYMATTR Value 10k
SYMBOL diode 352 272 R90
WINDOW 0 0 48 VBottom 2
WINDOW 3 -27 18 VTop 2
SYMATTR InstName D1
SYMATTR Value 1N4148
SYMBOL diode 288 368 R270
WINDOW 0 32 14 VTop 2
WINDOW 3 59 46 VBottom 2
SYMATTR InstName D2
SYMATTR Value 1N4148
SYMBOL voltage -256 112 R0
SYMATTR InstName V1
SYMATTR Value 9
SYMBOL Misc/signal -48 176 R0
WINDOW 3 -71 131 Left 2
SYMATTR InstName V2
SYMBOL voltage -256 240 R0
SYMATTR InstName V3
SYMATTR Value 9
SYMBOL res 496 192 R0
SYMATTR InstName R3
SYMATTR Value 1k
TEXT -288 -128 Left 2 !.tran 10m
