Version 4
SHEET 1 880 780
WIRE 432 288 368 288
WIRE 608 304 496 304
WIRE 432 320 224 320
WIRE 224 352 224 320
WIRE 368 432 368 288
WIRE 496 432 368 432
WIRE 608 432 608 304
WIRE 608 432 576 432
WIRE 368 464 368 432
WIRE 368 560 368 544
WIRE 0 608 0 576
WIRE 0 608 -48 608
WIRE 0 624 0 608
WIRE 368 656 368 624
FLAG 464 272 VCC
FLAG 464 336 VEE
FLAG 0 496 VCC
FLAG -48 608 0
FLAG 0 704 VEE
FLAG 368 656 0
FLAG 224 432 0
SYMBOL OpAmps/OP07 464 240 R0
SYMATTR InstName U1
SYMBOL voltage 0 480 R0
SYMATTR InstName V1
SYMATTR Value 9
SYMBOL voltage 0 608 R0
SYMATTR InstName V2
SYMATTR Value 9
SYMBOL res 352 448 R0
SYMATTR InstName R1
SYMATTR Value 5k
SYMBOL res 592 416 R90
WINDOW 0 0 56 VBottom 2
WINDOW 3 32 56 VTop 2
SYMATTR InstName R2
SYMATTR Value 1e3
SYMBOL Misc/signal 224 336 R0
WINDOW 3 -71 131 Left 2
SYMATTR Value SINE(0 2 1K)
SYMATTR InstName V3
SYMATTR Value2 AC 2
SYMBOL cap 352 560 R0
SYMATTR InstName C1
SYMATTR Value 40n
TEXT -40 32 Left 2 !.ac dec 20 10 100k
