Version 4
SHEET 1 1168 716
WIRE 544 192 544 160
WIRE 544 208 544 192
WIRE 480 256 64 256
WIRE 64 288 64 256
WIRE 544 320 544 304
WIRE -208 544 -208 528
WIRE -208 544 -224 544
WIRE -208 560 -208 544
FLAG 64 368 0
FLAG -208 448 VCC
FLAG -224 544 0
FLAG -208 640 VEE
FLAG 544 400 0
FLAG 544 80 VCC
SYMBOL Misc/signal 64 272 R0
SYMATTR InstName V1
SYMATTR Value SINE(5 4 1k 0 0 0 0)
SYMBOL voltage -208 432 R0
SYMATTR InstName V3
SYMATTR Value 9
SYMBOL voltage -208 544 R0
SYMATTR InstName V4
SYMATTR Value 9
SYMBOL npn 480 208 R0
SYMATTR InstName Q1
SYMBOL res 528 304 R0
SYMATTR InstName R1
SYMATTR Value 1k
SYMBOL res 528 64 R0
SYMATTR InstName R2
SYMATTR Value 1k
SYMBOL cap 608 176 R90
WINDOW 0 0 32 VBottom 2
WINDOW 3 32 32 VTop 2
SYMATTR InstName C1
SYMATTR Value 100µ
TEXT -8 64 Left 2 !.tran 10m
